<routes xmlns:xsi="http://www.w3.org/2001/XMLSchema-instance" xsi:noNamespaceSchemaLocation="http://sumo.dlr.de/xsd/routes_file.xsd">
    <vType id="SUMO_DEFAULT_TYPE" accel="0.8" decel="4.5" sigma="0" length="5" minGap="2" maxSpeed="70"/>
    <route id="always_right" edges="1fi 1si 4o 4fi 4si 2o 2fi 2si 3o 3fi 3si 1o 1fi"/>
    <route id="always_left" edges="3fi 3si 2o 2fi 2si 4o 4fi 4si 1o 1fi 1si 3o 3fi"/>
    <route id="horizontal" edges="2fi 2si 1o 1fi 1si 2o 2fi"/>
    <route id="vertical" edges="3fi 3si 4o 4fi 4si 3o 3fi"/>

    
    <vehicle id="down_0" type="SUMO_DEFAULT_TYPE" route="always_right" depart="1" color="1,0,0"/>
    <vehicle id="right_1" type="SUMO_DEFAULT_TYPE" route="horizontal" depart="3" />
    <vehicle id="down_2" type="SUMO_DEFAULT_TYPE" route="always_left" depart="5" color="1,0,0"/>
    <vehicle id="down_3" type="SUMO_DEFAULT_TYPE" route="always_left" depart="7" color="1,0,0"/>
    <vehicle id="right_4" type="SUMO_DEFAULT_TYPE" route="horizontal" depart="8" />
    <vehicle id="down_5" type="SUMO_DEFAULT_TYPE" route="always_left" depart="9" color="1,0,0"/>
    <vehicle id="down_6" type="SUMO_DEFAULT_TYPE" route="always_right" depart="10" color="1,0,0"/>
    <vehicle id="down_7" type="SUMO_DEFAULT_TYPE" route="always_right" depart="14" color="1,0,0"/>
    <vehicle id="left_8" type="SUMO_DEFAULT_TYPE" route="vertical" depart="18" />
    <vehicle id="down_9" type="SUMO_DEFAULT_TYPE" route="always_right" depart="20" color="1,0,0"/>
    <vehicle id="down_10" type="SUMO_DEFAULT_TYPE" route="always_left" depart="23" color="1,0,0"/>
    <vehicle id="down_11" type="SUMO_DEFAULT_TYPE" route="always_right" depart="24" color="1,0,0"/>
    <vehicle id="right_12" type="SUMO_DEFAULT_TYPE" route="horizontal" depart="26" />
    <vehicle id="down_13" type="SUMO_DEFAULT_TYPE" route="always_right" depart="26" color="1,0,0"/>
    <vehicle id="left_14" type="SUMO_DEFAULT_TYPE" route="vertical" depart="30" />
    <vehicle id="down_15" type="SUMO_DEFAULT_TYPE" route="always_right" depart="30" color="1,0,0"/>
    <vehicle id="left_16" type="SUMO_DEFAULT_TYPE" route="vertical" depart="33" />
    <vehicle id="down_17" type="SUMO_DEFAULT_TYPE" route="always_left" depart="33" color="1,0,0"/>
    <vehicle id="down_18" type="SUMO_DEFAULT_TYPE" route="always_left" depart="35" color="1,0,0"/>
    <vehicle id="down_19" type="SUMO_DEFAULT_TYPE" route="always_right" depart="42" color="1,0,0"/>
    <vehicle id="down_20" type="SUMO_DEFAULT_TYPE" route="always_left" depart="46" color="1,0,0"/>
    <vehicle id="down_21" type="SUMO_DEFAULT_TYPE" route="always_left" depart="48" color="1,0,0"/>
    <vehicle id="down_22" type="SUMO_DEFAULT_TYPE" route="always_right" depart="49" color="1,0,0"/>
    <vehicle id="right_23" type="SUMO_DEFAULT_TYPE" route="horizontal" depart="51" />
    <vehicle id="down_24" type="SUMO_DEFAULT_TYPE" route="always_left" depart="51" color="1,0,0"/>
    <vehicle id="down_25" type="SUMO_DEFAULT_TYPE" route="always_left" depart="52" color="1,0,0"/>
    <vehicle id="right_26" type="SUMO_DEFAULT_TYPE" route="horizontal" depart="53" />
    <vehicle id="left_27" type="SUMO_DEFAULT_TYPE" route="vertical" depart="58" />
    <vehicle id="right_28" type="SUMO_DEFAULT_TYPE" route="horizontal" depart="61" />
    <vehicle id="left_29" type="SUMO_DEFAULT_TYPE" route="vertical" depart="63" />
    <vehicle id="down_30" type="SUMO_DEFAULT_TYPE" route="always_right" depart="64" color="1,0,0"/>
    <vehicle id="down_31" type="SUMO_DEFAULT_TYPE" route="always_right" depart="66" color="1,0,0"/>
    <vehicle id="down_32" type="SUMO_DEFAULT_TYPE" route="always_right" depart="67" color="1,0,0"/>
    <vehicle id="down_33" type="SUMO_DEFAULT_TYPE" route="always_left" depart="68" color="1,0,0"/>
    <vehicle id="down_34" type="SUMO_DEFAULT_TYPE" route="always_right" depart="68" color="1,0,0"/>
    <vehicle id="right_35" type="SUMO_DEFAULT_TYPE" route="horizontal" depart="72" />
    <vehicle id="left_36" type="SUMO_DEFAULT_TYPE" route="vertical" depart="72" />
    <vehicle id="down_37" type="SUMO_DEFAULT_TYPE" route="always_left" depart="74" color="1,0,0"/>
    <vehicle id="left_38" type="SUMO_DEFAULT_TYPE" route="vertical" depart="75" />
    <vehicle id="down_39" type="SUMO_DEFAULT_TYPE" route="always_right" depart="76" color="1,0,0"/>
    <vehicle id="right_40" type="SUMO_DEFAULT_TYPE" route="horizontal" depart="79" />
    <vehicle id="down_41" type="SUMO_DEFAULT_TYPE" route="always_right" depart="81" color="1,0,0"/>
    <vehicle id="down_42" type="SUMO_DEFAULT_TYPE" route="always_right" depart="86" color="1,0,0"/>
    <vehicle id="right_43" type="SUMO_DEFAULT_TYPE" route="horizontal" depart="90" />
    <vehicle id="left_44" type="SUMO_DEFAULT_TYPE" route="vertical" depart="95" />
    <vehicle id="down_45" type="SUMO_DEFAULT_TYPE" route="always_left" depart="96" color="1,0,0"/>
    <vehicle id="down_46" type="SUMO_DEFAULT_TYPE" route="always_right" depart="96" color="1,0,0"/>
    <vehicle id="down_47" type="SUMO_DEFAULT_TYPE" route="always_right" depart="104" color="1,0,0"/>
    <vehicle id="down_48" type="SUMO_DEFAULT_TYPE" route="always_right" depart="105" color="1,0,0"/>
    <vehicle id="right_49" type="SUMO_DEFAULT_TYPE" route="horizontal" depart="106" />
    <vehicle id="down_50" type="SUMO_DEFAULT_TYPE" route="always_right" depart="106" color="1,0,0"/>
    <vehicle id="down_51" type="SUMO_DEFAULT_TYPE" route="always_right" depart="107" color="1,0,0"/>
    <vehicle id="right_52" type="SUMO_DEFAULT_TYPE" route="horizontal" depart="108" />
    <vehicle id="left_53" type="SUMO_DEFAULT_TYPE" route="vertical" depart="111" />
    <vehicle id="left_54" type="SUMO_DEFAULT_TYPE" route="vertical" depart="113" />
    <vehicle id="down_55" type="SUMO_DEFAULT_TYPE" route="always_left" depart="113" color="1,0,0"/>
    <vehicle id="right_56" type="SUMO_DEFAULT_TYPE" route="horizontal" depart="115" />
    <vehicle id="right_57" type="SUMO_DEFAULT_TYPE" route="horizontal" depart="120" />
    <vehicle id="left_58" type="SUMO_DEFAULT_TYPE" route="vertical" depart="121" />
    <vehicle id="right_59" type="SUMO_DEFAULT_TYPE" route="horizontal" depart="124" />
    <vehicle id="right_60" type="SUMO_DEFAULT_TYPE" route="horizontal" depart="125" />
    <vehicle id="down_61" type="SUMO_DEFAULT_TYPE" route="always_right" depart="126" color="1,0,0"/>
    <vehicle id="down_62" type="SUMO_DEFAULT_TYPE" route="always_left" depart="129" color="1,0,0"/>
    <vehicle id="left_63" type="SUMO_DEFAULT_TYPE" route="vertical" depart="131" />
    <vehicle id="down_64" type="SUMO_DEFAULT_TYPE" route="always_right" depart="131" color="1,0,0"/>
    <vehicle id="down_65" type="SUMO_DEFAULT_TYPE" route="always_right" depart="133" color="1,0,0"/>
    <vehicle id="left_66" type="SUMO_DEFAULT_TYPE" route="vertical" depart="142" />
    <vehicle id="down_67" type="SUMO_DEFAULT_TYPE" route="always_right" depart="143" color="1,0,0"/>
    <vehicle id="down_68" type="SUMO_DEFAULT_TYPE" route="always_right" depart="144" color="1,0,0"/>
    <vehicle id="right_69" type="SUMO_DEFAULT_TYPE" route="horizontal" depart="146" />
    <vehicle id="right_70" type="SUMO_DEFAULT_TYPE" route="horizontal" depart="147" />
    <vehicle id="right_71" type="SUMO_DEFAULT_TYPE" route="horizontal" depart="148" />
    <vehicle id="down_72" type="SUMO_DEFAULT_TYPE" route="always_right" depart="150" color="1,0,0"/>
    <vehicle id="down_73" type="SUMO_DEFAULT_TYPE" route="always_right" depart="151" color="1,0,0"/>
    <vehicle id="left_74" type="SUMO_DEFAULT_TYPE" route="vertical" depart="155" />
    <vehicle id="down_75" type="SUMO_DEFAULT_TYPE" route="always_left" depart="155" color="1,0,0"/>
    <vehicle id="left_76" type="SUMO_DEFAULT_TYPE" route="vertical" depart="158" />
    <vehicle id="down_77" type="SUMO_DEFAULT_TYPE" route="always_right" depart="159" color="1,0,0"/>
    <vehicle id="left_78" type="SUMO_DEFAULT_TYPE" route="vertical" depart="165" />
    <vehicle id="down_79" type="SUMO_DEFAULT_TYPE" route="always_right" depart="166" color="1,0,0"/>
    <vehicle id="down_80" type="SUMO_DEFAULT_TYPE" route="always_left" depart="167" color="1,0,0"/>
    <vehicle id="right_81" type="SUMO_DEFAULT_TYPE" route="horizontal" depart="168" />
    <vehicle id="down_82" type="SUMO_DEFAULT_TYPE" route="always_left" depart="168" color="1,0,0"/>
    <vehicle id="down_83" type="SUMO_DEFAULT_TYPE" route="always_left" depart="169" color="1,0,0"/>
    <vehicle id="left_84" type="SUMO_DEFAULT_TYPE" route="vertical" depart="170" />
    <vehicle id="down_85" type="SUMO_DEFAULT_TYPE" route="always_left" depart="177" color="1,0,0"/>
    <vehicle id="left_86" type="SUMO_DEFAULT_TYPE" route="vertical" depart="186" />
    <vehicle id="down_87" type="SUMO_DEFAULT_TYPE" route="always_left" depart="187" color="1,0,0"/>
    <vehicle id="right_88" type="SUMO_DEFAULT_TYPE" route="horizontal" depart="190" />
    <vehicle id="down_89" type="SUMO_DEFAULT_TYPE" route="always_right" depart="190" color="1,0,0"/>
    <vehicle id="down_90" type="SUMO_DEFAULT_TYPE" route="always_right" depart="193" color="1,0,0"/>
    <vehicle id="down_91" type="SUMO_DEFAULT_TYPE" route="always_right" depart="195" color="1,0,0"/>
    <vehicle id="down_92" type="SUMO_DEFAULT_TYPE" route="always_right" depart="200" color="1,0,0"/>
    <vehicle id="down_93" type="SUMO_DEFAULT_TYPE" route="always_right" depart="205" color="1,0,0"/>
    <vehicle id="left_94" type="SUMO_DEFAULT_TYPE" route="vertical" depart="207" />
    <vehicle id="left_95" type="SUMO_DEFAULT_TYPE" route="vertical" depart="209" />
    <vehicle id="down_96" type="SUMO_DEFAULT_TYPE" route="always_left" depart="209" color="1,0,0"/>
    <vehicle id="down_97" type="SUMO_DEFAULT_TYPE" route="always_left" depart="211" color="1,0,0"/>
    <vehicle id="right_98" type="SUMO_DEFAULT_TYPE" route="horizontal" depart="212" />
    <vehicle id="down_99" type="SUMO_DEFAULT_TYPE" route="always_left" depart="212" color="1,0,0"/>
    <vehicle id="down_100" type="SUMO_DEFAULT_TYPE" route="always_left" depart="214" color="1,0,0"/>
    <vehicle id="down_101" type="SUMO_DEFAULT_TYPE" route="always_right" depart="216" color="1,0,0"/>
    <vehicle id="down_102" type="SUMO_DEFAULT_TYPE" route="always_left" depart="217" color="1,0,0"/>
    <vehicle id="down_103" type="SUMO_DEFAULT_TYPE" route="always_right" depart="218" color="1,0,0"/>
    <vehicle id="down_104" type="SUMO_DEFAULT_TYPE" route="always_right" depart="219" color="1,0,0"/>
    <vehicle id="left_105" type="SUMO_DEFAULT_TYPE" route="vertical" depart="223" />
    <vehicle id="down_106" type="SUMO_DEFAULT_TYPE" route="always_right" depart="226" color="1,0,0"/>
    <vehicle id="right_107" type="SUMO_DEFAULT_TYPE" route="horizontal" depart="227" />
    <vehicle id="down_108" type="SUMO_DEFAULT_TYPE" route="always_left" depart="234" color="1,0,0"/>
    <vehicle id="left_109" type="SUMO_DEFAULT_TYPE" route="vertical" depart="235" />
    <vehicle id="left_110" type="SUMO_DEFAULT_TYPE" route="vertical" depart="241" />
    <vehicle id="down_111" type="SUMO_DEFAULT_TYPE" route="always_left" depart="241" color="1,0,0"/>
    <vehicle id="down_112" type="SUMO_DEFAULT_TYPE" route="always_right" depart="241" color="1,0,0"/>
    <vehicle id="right_113" type="SUMO_DEFAULT_TYPE" route="horizontal" depart="244" />
    <vehicle id="left_114" type="SUMO_DEFAULT_TYPE" route="vertical" depart="245" />
    <vehicle id="down_115" type="SUMO_DEFAULT_TYPE" route="always_left" depart="246" color="1,0,0"/>
    <vehicle id="down_116" type="SUMO_DEFAULT_TYPE" route="always_right" depart="246" color="1,0,0"/>
    <vehicle id="down_117" type="SUMO_DEFAULT_TYPE" route="always_right" depart="247" color="1,0,0"/>
    <vehicle id="right_118" type="SUMO_DEFAULT_TYPE" route="horizontal" depart="250" />
    <vehicle id="left_119" type="SUMO_DEFAULT_TYPE" route="vertical" depart="250" />
    <vehicle id="down_120" type="SUMO_DEFAULT_TYPE" route="always_left" depart="250" color="1,0,0"/>
    <vehicle id="down_121" type="SUMO_DEFAULT_TYPE" route="always_right" depart="255" color="1,0,0"/>
    <vehicle id="down_122" type="SUMO_DEFAULT_TYPE" route="always_right" depart="257" color="1,0,0"/>
    <vehicle id="left_123" type="SUMO_DEFAULT_TYPE" route="vertical" depart="260" />
    <vehicle id="down_124" type="SUMO_DEFAULT_TYPE" route="always_right" depart="264" color="1,0,0"/>
    <vehicle id="left_125" type="SUMO_DEFAULT_TYPE" route="vertical" depart="267" />
    <vehicle id="down_126" type="SUMO_DEFAULT_TYPE" route="always_right" depart="276" color="1,0,0"/>
    <vehicle id="left_127" type="SUMO_DEFAULT_TYPE" route="vertical" depart="277" />
    <vehicle id="left_128" type="SUMO_DEFAULT_TYPE" route="vertical" depart="283" />
    <vehicle id="down_129" type="SUMO_DEFAULT_TYPE" route="always_right" depart="287" color="1,0,0"/>
    <vehicle id="right_130" type="SUMO_DEFAULT_TYPE" route="horizontal" depart="289" />
    <vehicle id="right_131" type="SUMO_DEFAULT_TYPE" route="horizontal" depart="291" />
    <vehicle id="right_132" type="SUMO_DEFAULT_TYPE" route="horizontal" depart="299" />
    <vehicle id="right_133" type="SUMO_DEFAULT_TYPE" route="horizontal" depart="300" />
    <vehicle id="down_134" type="SUMO_DEFAULT_TYPE" route="always_right" depart="310" color="1,0,0"/>
    <vehicle id="right_135" type="SUMO_DEFAULT_TYPE" route="horizontal" depart="317" />
    <vehicle id="down_136" type="SUMO_DEFAULT_TYPE" route="always_right" depart="318" color="1,0,0"/>
    <vehicle id="down_137" type="SUMO_DEFAULT_TYPE" route="always_right" depart="330" color="1,0,0"/>
    <vehicle id="right_138" type="SUMO_DEFAULT_TYPE" route="horizontal" depart="331" />
    <vehicle id="down_139" type="SUMO_DEFAULT_TYPE" route="always_left" depart="331" color="1,0,0"/>
    <vehicle id="down_140" type="SUMO_DEFAULT_TYPE" route="always_right" depart="331" color="1,0,0"/>
    <vehicle id="right_141" type="SUMO_DEFAULT_TYPE" route="horizontal" depart="334" />
    <vehicle id="left_142" type="SUMO_DEFAULT_TYPE" route="vertical" depart="334" />
    <vehicle id="right_143" type="SUMO_DEFAULT_TYPE" route="horizontal" depart="336" />
    <vehicle id="right_144" type="SUMO_DEFAULT_TYPE" route="horizontal" depart="339" />
    <vehicle id="left_145" type="SUMO_DEFAULT_TYPE" route="vertical" depart="339" />
    <vehicle id="down_146" type="SUMO_DEFAULT_TYPE" route="always_right" depart="344" color="1,0,0"/>
    <vehicle id="right_147" type="SUMO_DEFAULT_TYPE" route="horizontal" depart="345" />
    <vehicle id="down_148" type="SUMO_DEFAULT_TYPE" route="always_left" depart="345" color="1,0,0"/>
    <vehicle id="right_149" type="SUMO_DEFAULT_TYPE" route="horizontal" depart="346" />
    <vehicle id="left_150" type="SUMO_DEFAULT_TYPE" route="vertical" depart="348" />
    <vehicle id="left_151" type="SUMO_DEFAULT_TYPE" route="vertical" depart="349" />
    <vehicle id="down_152" type="SUMO_DEFAULT_TYPE" route="always_right" depart="355" color="1,0,0"/>
    <vehicle id="left_153" type="SUMO_DEFAULT_TYPE" route="vertical" depart="356" />
    <vehicle id="down_154" type="SUMO_DEFAULT_TYPE" route="always_left" depart="357" color="1,0,0"/>
    <vehicle id="down_155" type="SUMO_DEFAULT_TYPE" route="always_left" depart="359" color="1,0,0"/>
    <vehicle id="down_156" type="SUMO_DEFAULT_TYPE" route="always_left" depart="360" color="1,0,0"/>
    <vehicle id="left_157" type="SUMO_DEFAULT_TYPE" route="vertical" depart="364" />
    <vehicle id="down_158" type="SUMO_DEFAULT_TYPE" route="always_left" depart="364" color="1,0,0"/>
    <vehicle id="down_159" type="SUMO_DEFAULT_TYPE" route="always_right" depart="366" color="1,0,0"/>
    <vehicle id="down_160" type="SUMO_DEFAULT_TYPE" route="always_right" depart="367" color="1,0,0"/>
    <vehicle id="down_161" type="SUMO_DEFAULT_TYPE" route="always_right" depart="368" color="1,0,0"/>
    <vehicle id="right_162" type="SUMO_DEFAULT_TYPE" route="horizontal" depart="370" />
    <vehicle id="left_163" type="SUMO_DEFAULT_TYPE" route="vertical" depart="371" />
    <vehicle id="left_164" type="SUMO_DEFAULT_TYPE" route="vertical" depart="377" />
    <vehicle id="down_165" type="SUMO_DEFAULT_TYPE" route="always_left" depart="377" color="1,0,0"/>
    <vehicle id="down_166" type="SUMO_DEFAULT_TYPE" route="always_right" depart="377" color="1,0,0"/>
    <vehicle id="down_167" type="SUMO_DEFAULT_TYPE" route="always_left" depart="378" color="1,0,0"/>
    <vehicle id="right_168" type="SUMO_DEFAULT_TYPE" route="horizontal" depart="379" />
    <vehicle id="down_169" type="SUMO_DEFAULT_TYPE" route="always_left" depart="382" color="1,0,0"/>
    <vehicle id="down_170" type="SUMO_DEFAULT_TYPE" route="always_left" depart="383" color="1,0,0"/>
    <vehicle id="down_171" type="SUMO_DEFAULT_TYPE" route="always_right" depart="385" color="1,0,0"/>
    <vehicle id="down_172" type="SUMO_DEFAULT_TYPE" route="always_left" depart="386" color="1,0,0"/>
    <vehicle id="right_173" type="SUMO_DEFAULT_TYPE" route="horizontal" depart="387" />
    <vehicle id="down_174" type="SUMO_DEFAULT_TYPE" route="always_left" depart="389" color="1,0,0"/>
    <vehicle id="down_175" type="SUMO_DEFAULT_TYPE" route="always_left" depart="391" color="1,0,0"/>
    <vehicle id="down_176" type="SUMO_DEFAULT_TYPE" route="always_left" depart="392" color="1,0,0"/>
    <vehicle id="down_177" type="SUMO_DEFAULT_TYPE" route="always_right" depart="395" color="1,0,0"/>
    <vehicle id="down_178" type="SUMO_DEFAULT_TYPE" route="always_right" depart="397" color="1,0,0"/>
    <vehicle id="right_179" type="SUMO_DEFAULT_TYPE" route="horizontal" depart="399" />
    <vehicle id="left_180" type="SUMO_DEFAULT_TYPE" route="vertical" depart="402" />
    <vehicle id="down_181" type="SUMO_DEFAULT_TYPE" route="always_right" depart="402" color="1,0,0"/>
    <vehicle id="right_182" type="SUMO_DEFAULT_TYPE" route="horizontal" depart="405" />
    <vehicle id="down_183" type="SUMO_DEFAULT_TYPE" route="always_right" depart="405" color="1,0,0"/>
    <vehicle id="down_184" type="SUMO_DEFAULT_TYPE" route="always_left" depart="406" color="1,0,0"/>
    <vehicle id="down_185" type="SUMO_DEFAULT_TYPE" route="always_right" depart="407" color="1,0,0"/>
    <vehicle id="left_186" type="SUMO_DEFAULT_TYPE" route="vertical" depart="409" />
    <vehicle id="down_187" type="SUMO_DEFAULT_TYPE" route="always_right" depart="414" color="1,0,0"/>
    <vehicle id="down_188" type="SUMO_DEFAULT_TYPE" route="always_left" depart="418" color="1,0,0"/>
    <vehicle id="left_189" type="SUMO_DEFAULT_TYPE" route="vertical" depart="420" />
    <vehicle id="down_190" type="SUMO_DEFAULT_TYPE" route="always_right" depart="420" color="1,0,0"/>
    <vehicle id="down_191" type="SUMO_DEFAULT_TYPE" route="always_left" depart="424" color="1,0,0"/>
    <vehicle id="right_192" type="SUMO_DEFAULT_TYPE" route="horizontal" depart="426" />
    <vehicle id="down_193" type="SUMO_DEFAULT_TYPE" route="always_left" depart="426" color="1,0,0"/>
    <vehicle id="left_194" type="SUMO_DEFAULT_TYPE" route="vertical" depart="428" />
    <vehicle id="left_195" type="SUMO_DEFAULT_TYPE" route="vertical" depart="431" />
    <vehicle id="down_196" type="SUMO_DEFAULT_TYPE" route="always_right" depart="431" color="1,0,0"/>
    <vehicle id="right_197" type="SUMO_DEFAULT_TYPE" route="horizontal" depart="433" />
    <vehicle id="left_198" type="SUMO_DEFAULT_TYPE" route="vertical" depart="437" />
    <vehicle id="down_199" type="SUMO_DEFAULT_TYPE" route="always_right" depart="438" color="1,0,0"/>
    <vehicle id="down_200" type="SUMO_DEFAULT_TYPE" route="always_left" depart="439" color="1,0,0"/>
    <vehicle id="down_201" type="SUMO_DEFAULT_TYPE" route="always_right" depart="439" color="1,0,0"/>
    <vehicle id="down_202" type="SUMO_DEFAULT_TYPE" route="always_right" depart="440" color="1,0,0"/>
    <vehicle id="right_203" type="SUMO_DEFAULT_TYPE" route="horizontal" depart="442" />
    <vehicle id="left_204" type="SUMO_DEFAULT_TYPE" route="vertical" depart="445" />
    <vehicle id="down_205" type="SUMO_DEFAULT_TYPE" route="always_left" depart="450" color="1,0,0"/>
    <vehicle id="right_206" type="SUMO_DEFAULT_TYPE" route="horizontal" depart="457" />
    <vehicle id="left_207" type="SUMO_DEFAULT_TYPE" route="vertical" depart="459" />
    <vehicle id="down_208" type="SUMO_DEFAULT_TYPE" route="always_left" depart="461" color="1,0,0"/>
    <vehicle id="down_209" type="SUMO_DEFAULT_TYPE" route="always_left" depart="464" color="1,0,0"/>
    <vehicle id="down_210" type="SUMO_DEFAULT_TYPE" route="always_right" depart="464" color="1,0,0"/>
    <vehicle id="left_211" type="SUMO_DEFAULT_TYPE" route="vertical" depart="466" />
    <vehicle id="left_212" type="SUMO_DEFAULT_TYPE" route="vertical" depart="467" />
    <vehicle id="down_213" type="SUMO_DEFAULT_TYPE" route="always_right" depart="469" color="1,0,0"/>
    <vehicle id="down_214" type="SUMO_DEFAULT_TYPE" route="always_left" depart="470" color="1,0,0"/>
    <vehicle id="down_215" type="SUMO_DEFAULT_TYPE" route="always_right" depart="474" color="1,0,0"/>
    <vehicle id="down_216" type="SUMO_DEFAULT_TYPE" route="always_right" depart="475" color="1,0,0"/>
    <vehicle id="left_217" type="SUMO_DEFAULT_TYPE" route="vertical" depart="477" />
    <vehicle id="down_218" type="SUMO_DEFAULT_TYPE" route="always_left" depart="478" color="1,0,0"/>
    <vehicle id="left_219" type="SUMO_DEFAULT_TYPE" route="vertical" depart="481" />
    <vehicle id="down_220" type="SUMO_DEFAULT_TYPE" route="always_left" depart="484" color="1,0,0"/>
    <vehicle id="down_221" type="SUMO_DEFAULT_TYPE" route="always_left" depart="485" color="1,0,0"/>
    <vehicle id="down_222" type="SUMO_DEFAULT_TYPE" route="always_left" depart="487" color="1,0,0"/>
    <vehicle id="left_223" type="SUMO_DEFAULT_TYPE" route="vertical" depart="489" />
    <vehicle id="down_224" type="SUMO_DEFAULT_TYPE" route="always_right" depart="489" color="1,0,0"/>
    <vehicle id="left_225" type="SUMO_DEFAULT_TYPE" route="vertical" depart="491" />
    <vehicle id="down_226" type="SUMO_DEFAULT_TYPE" route="always_left" depart="493" color="1,0,0"/>
    <vehicle id="left_227" type="SUMO_DEFAULT_TYPE" route="vertical" depart="494" />
    <vehicle id="down_228" type="SUMO_DEFAULT_TYPE" route="always_left" depart="497" color="1,0,0"/>
    <vehicle id="down_229" type="SUMO_DEFAULT_TYPE" route="always_right" depart="498" color="1,0,0"/>
    <vehicle id="left_230" type="SUMO_DEFAULT_TYPE" route="vertical" depart="499" />
    <vehicle id="down_231" type="SUMO_DEFAULT_TYPE" route="always_right" depart="500" color="1,0,0"/>
    <vehicle id="left_232" type="SUMO_DEFAULT_TYPE" route="vertical" depart="501" />
    <vehicle id="down_233" type="SUMO_DEFAULT_TYPE" route="always_right" depart="503" color="1,0,0"/>
    <vehicle id="down_234" type="SUMO_DEFAULT_TYPE" route="always_left" depart="506" color="1,0,0"/>
    <vehicle id="down_235" type="SUMO_DEFAULT_TYPE" route="always_left" depart="507" color="1,0,0"/>
    <vehicle id="down_236" type="SUMO_DEFAULT_TYPE" route="always_right" depart="509" color="1,0,0"/>
    <vehicle id="right_237" type="SUMO_DEFAULT_TYPE" route="horizontal" depart="510" />
    <vehicle id="right_238" type="SUMO_DEFAULT_TYPE" route="horizontal" depart="512" />
    <vehicle id="left_239" type="SUMO_DEFAULT_TYPE" route="vertical" depart="512" />
    <vehicle id="down_240" type="SUMO_DEFAULT_TYPE" route="always_right" depart="513" color="1,0,0"/>
    <vehicle id="left_241" type="SUMO_DEFAULT_TYPE" route="vertical" depart="514" />
    <vehicle id="down_242" type="SUMO_DEFAULT_TYPE" route="always_right" depart="519" color="1,0,0"/>
    <vehicle id="down_243" type="SUMO_DEFAULT_TYPE" route="always_left" depart="527" color="1,0,0"/>
    <vehicle id="down_244" type="SUMO_DEFAULT_TYPE" route="always_right" depart="529" color="1,0,0"/>
    <vehicle id="left_245" type="SUMO_DEFAULT_TYPE" route="vertical" depart="530" />
    <vehicle id="down_246" type="SUMO_DEFAULT_TYPE" route="always_left" depart="531" color="1,0,0"/>
    <vehicle id="right_247" type="SUMO_DEFAULT_TYPE" route="horizontal" depart="533" />
    <vehicle id="left_248" type="SUMO_DEFAULT_TYPE" route="vertical" depart="534" />
    <vehicle id="down_249" type="SUMO_DEFAULT_TYPE" route="always_left" depart="534" color="1,0,0"/>
    <vehicle id="down_250" type="SUMO_DEFAULT_TYPE" route="always_right" depart="534" color="1,0,0"/>
    <vehicle id="right_251" type="SUMO_DEFAULT_TYPE" route="horizontal" depart="535" />
    <vehicle id="down_252" type="SUMO_DEFAULT_TYPE" route="always_right" depart="535" color="1,0,0"/>
    <vehicle id="right_253" type="SUMO_DEFAULT_TYPE" route="horizontal" depart="536" />
    <vehicle id="left_254" type="SUMO_DEFAULT_TYPE" route="vertical" depart="538" />
    <vehicle id="right_255" type="SUMO_DEFAULT_TYPE" route="horizontal" depart="540" />
    <vehicle id="down_256" type="SUMO_DEFAULT_TYPE" route="always_right" depart="543" color="1,0,0"/>
    <vehicle id="down_257" type="SUMO_DEFAULT_TYPE" route="always_right" depart="552" color="1,0,0"/>
    <vehicle id="right_258" type="SUMO_DEFAULT_TYPE" route="horizontal" depart="556" />
    <vehicle id="right_259" type="SUMO_DEFAULT_TYPE" route="horizontal" depart="557" />
    <vehicle id="right_260" type="SUMO_DEFAULT_TYPE" route="horizontal" depart="560" />
    <vehicle id="down_261" type="SUMO_DEFAULT_TYPE" route="always_left" depart="560" color="1,0,0"/>
    <vehicle id="down_262" type="SUMO_DEFAULT_TYPE" route="always_left" depart="562" color="1,0,0"/>
    <vehicle id="down_263" type="SUMO_DEFAULT_TYPE" route="always_right" depart="568" color="1,0,0"/>
    <vehicle id="down_264" type="SUMO_DEFAULT_TYPE" route="always_right" depart="569" color="1,0,0"/>
    <vehicle id="left_265" type="SUMO_DEFAULT_TYPE" route="vertical" depart="577" />
    <vehicle id="down_266" type="SUMO_DEFAULT_TYPE" route="always_right" depart="578" color="1,0,0"/>
    <vehicle id="down_267" type="SUMO_DEFAULT_TYPE" route="always_right" depart="580" color="1,0,0"/>
    <vehicle id="right_268" type="SUMO_DEFAULT_TYPE" route="horizontal" depart="581" />
    <vehicle id="down_269" type="SUMO_DEFAULT_TYPE" route="always_left" depart="581" color="1,0,0"/>
    <vehicle id="down_270" type="SUMO_DEFAULT_TYPE" route="always_right" depart="585" color="1,0,0"/>
    <vehicle id="left_271" type="SUMO_DEFAULT_TYPE" route="vertical" depart="592" />
    <vehicle id="down_272" type="SUMO_DEFAULT_TYPE" route="always_left" depart="593" color="1,0,0"/>
    <vehicle id="right_273" type="SUMO_DEFAULT_TYPE" route="horizontal" depart="598" />
    <vehicle id="down_274" type="SUMO_DEFAULT_TYPE" route="always_right" depart="599" color="1,0,0"/>
    <vehicle id="down_275" type="SUMO_DEFAULT_TYPE" route="always_left" depart="600" color="1,0,0"/>
    <vehicle id="right_276" type="SUMO_DEFAULT_TYPE" route="horizontal" depart="605" />
    <vehicle id="left_277" type="SUMO_DEFAULT_TYPE" route="vertical" depart="605" />
    <vehicle id="right_278" type="SUMO_DEFAULT_TYPE" route="horizontal" depart="606" />
    <vehicle id="down_279" type="SUMO_DEFAULT_TYPE" route="always_left" depart="606" color="1,0,0"/>
    <vehicle id="down_280" type="SUMO_DEFAULT_TYPE" route="always_left" depart="608" color="1,0,0"/>
    <vehicle id="right_281" type="SUMO_DEFAULT_TYPE" route="horizontal" depart="612" />
    <vehicle id="left_282" type="SUMO_DEFAULT_TYPE" route="vertical" depart="615" />
    <vehicle id="down_283" type="SUMO_DEFAULT_TYPE" route="always_right" depart="615" color="1,0,0"/>
    <vehicle id="left_284" type="SUMO_DEFAULT_TYPE" route="vertical" depart="616" />
    <vehicle id="down_285" type="SUMO_DEFAULT_TYPE" route="always_right" depart="618" color="1,0,0"/>
    <vehicle id="down_286" type="SUMO_DEFAULT_TYPE" route="always_right" depart="620" color="1,0,0"/>
    <vehicle id="down_287" type="SUMO_DEFAULT_TYPE" route="always_left" depart="621" color="1,0,0"/>
    <vehicle id="right_288" type="SUMO_DEFAULT_TYPE" route="horizontal" depart="624" />
    <vehicle id="down_289" type="SUMO_DEFAULT_TYPE" route="always_right" depart="626" color="1,0,0"/>
    <vehicle id="left_290" type="SUMO_DEFAULT_TYPE" route="vertical" depart="627" />
    <vehicle id="down_291" type="SUMO_DEFAULT_TYPE" route="always_left" depart="628" color="1,0,0"/>
    <vehicle id="right_292" type="SUMO_DEFAULT_TYPE" route="horizontal" depart="629" />
    <vehicle id="down_293" type="SUMO_DEFAULT_TYPE" route="always_left" depart="629" color="1,0,0"/>
    <vehicle id="left_294" type="SUMO_DEFAULT_TYPE" route="vertical" depart="640" />
    <vehicle id="down_295" type="SUMO_DEFAULT_TYPE" route="always_right" depart="640" color="1,0,0"/>
    <vehicle id="down_296" type="SUMO_DEFAULT_TYPE" route="always_left" depart="641" color="1,0,0"/>
    <vehicle id="down_297" type="SUMO_DEFAULT_TYPE" route="always_left" depart="646" color="1,0,0"/>
    <vehicle id="right_298" type="SUMO_DEFAULT_TYPE" route="horizontal" depart="648" />
    <vehicle id="down_299" type="SUMO_DEFAULT_TYPE" route="always_left" depart="653" color="1,0,0"/>
    <vehicle id="down_300" type="SUMO_DEFAULT_TYPE" route="always_right" depart="653" color="1,0,0"/>
    <vehicle id="left_301" type="SUMO_DEFAULT_TYPE" route="vertical" depart="656" />
    <vehicle id="down_302" type="SUMO_DEFAULT_TYPE" route="always_right" depart="659" color="1,0,0"/>
    <vehicle id="down_303" type="SUMO_DEFAULT_TYPE" route="always_left" depart="660" color="1,0,0"/>
    <vehicle id="down_304" type="SUMO_DEFAULT_TYPE" route="always_left" depart="662" color="1,0,0"/>
    <vehicle id="down_305" type="SUMO_DEFAULT_TYPE" route="always_left" depart="669" color="1,0,0"/>
    <vehicle id="down_306" type="SUMO_DEFAULT_TYPE" route="always_right" depart="670" color="1,0,0"/>
    <vehicle id="down_307" type="SUMO_DEFAULT_TYPE" route="always_left" depart="672" color="1,0,0"/>
    <vehicle id="down_308" type="SUMO_DEFAULT_TYPE" route="always_right" depart="673" color="1,0,0"/>
    <vehicle id="down_309" type="SUMO_DEFAULT_TYPE" route="always_right" depart="675" color="1,0,0"/>